!-Generator IDFEditor 1.54
!-Option SortedOrder

!-NOTE: All comments with '!-' are ignored by the IDFEditor and are generated automatically.
!-      Use '!' comments if they need to be retained when using the IDFEditor.


!-   ===========  ALL OBJECTS IN CLASS: VERSION ===========

Version,
    24.2;                    !- Version Identifier


!-   ===========  ALL OBJECTS IN CLASS: SIMULATIONCONTROL ===========

SimulationControl,
    Yes,                     !- Do Zone Sizing Calculation
    Yes,                     !- Do System Sizing Calculation
    No,                      !- Do Plant Sizing Calculation
    No,                      !- Run Simulation for Sizing Periods
    Yes,                     !- Run Simulation for Weather File Run Periods
    ,                        !- Do HVAC Sizing Simulation for Sizing Periods
    ;                        !- Maximum Number of HVAC Sizing Simulation Passes


!-   ===========  ALL OBJECTS IN CLASS: BUILDING ===========

Building,
    Automobile Facility,     !- Name
    ,                        !- North Axis {deg}
    ,                        !- Terrain
    ,                        !- Loads Convergence Tolerance Value {W}
    ,                        !- Temperature Convergence Tolerance Value {deltaC}
    ,                        !- Solar Distribution
    ,                        !- Maximum Number of Warmup Days
    ;                        !- Minimum Number of Warmup Days


!-   ===========  ALL OBJECTS IN CLASS: SHADOWCALCULATION ===========

ShadowCalculation,
    PolygonClipping,         !- Shading Calculation Method
    Periodic,                !- Shading Calculation Update Frequency Method
    20,                      !- Shading Calculation Update Frequency
    15000,                   !- Maximum Figures in Shadow Overlap Calculations
    SutherlandHodgman,       !- Polygon Clipping Algorithm
    512,                     !- Pixel Counting Resolution
    SimpleSkyDiffuseModeling,!- Sky Diffuse Modeling Algorithm
    No,                      !- Output External Shading Calculation Results
    No,                      !- Disable Self-Shading Within Shading Zone Groups
    No;                      !- Disable Self-Shading From Shading Zone Groups to Other Zones


!-   ===========  ALL OBJECTS IN CLASS: SURFACECONVECTIONALGORITHM:INSIDE ===========

SurfaceConvectionAlgorithm:Inside,
    TARP;                    !- Algorithm


!-   ===========  ALL OBJECTS IN CLASS: SURFACECONVECTIONALGORITHM:OUTSIDE ===========

SurfaceConvectionAlgorithm:Outside,
    DOE-2;                   !- Algorithm


!-   ===========  ALL OBJECTS IN CLASS: HEATBALANCEALGORITHM ===========

HeatBalanceAlgorithm,
    ConductionTransferFunction,  !- Algorithm
    200;                     !- Surface Temperature Upper Limit {C}


!-   ===========  ALL OBJECTS IN CLASS: ZONEAIRHEATBALANCEALGORITHM ===========

ZoneAirHeatBalanceAlgorithm,
    ThirdOrderBackwardDifference,  !- Algorithm
    No,                      !- Do Space Heat Balance for Sizing
    No;                      !- Do Space Heat Balance for Simulation


!-   ===========  ALL OBJECTS IN CLASS: ZONEAIRCONTAMINANTBALANCE ===========

ZoneAirContaminantBalance,
    No;                      !- Carbon Dioxide Concentration


!-   ===========  ALL OBJECTS IN CLASS: ZONECAPACITANCEMULTIPLIER:RESEARCHSPECIAL ===========

ZoneCapacitanceMultiplier:ResearchSpecial,
    Zone Capacitance Multiplier Research Special,  !- Name
    ,                        !- Zone or ZoneList Name
    ,                        !- Temperature Capacity Multiplier
    ,                        !- Humidity Capacity Multiplier
    ,                        !- Carbon Dioxide Capacity Multiplier
    ;                        !- Generic Contaminant Capacity Multiplier


!-   ===========  ALL OBJECTS IN CLASS: TIMESTEP ===========

Timestep,
    6;                       !- Number of Timesteps per Hour


!-   ===========  ALL OBJECTS IN CLASS: CONVERGENCELIMITS ===========

ConvergenceLimits,
    1;                       !- Minimum System Timestep {minutes}


!-   ===========  ALL OBJECTS IN CLASS: SITE:LOCATION ===========

Site:Location,
    Atlanta Hartsfield Intl Ap,  !- Name
    33.63,                   !- Latitude {deg}
    -84.43,                  !- Longitude {deg}
    -5,                      !- Time Zone {hr}
    308;                     !- Elevation {m}


!-   ===========  ALL OBJECTS IN CLASS: SIZINGPERIOD:DESIGNDAY ===========

SizingPeriod:DesignDay,
    Atlanta Hartsfield Intl Ap Ann Clg .4% Condns DB=>MWB,  !- Name
    7,                       !- Month
    21,                      !- Day of Month
    SummerDesignDay,         !- Day Type
    34.4,                    !- Maximum Dry-Bulb Temperature {C}
    9.5,                     !- Daily Dry-Bulb Temperature Range {deltaC}
    DefaultMultipliers,      !- Dry-Bulb Temperature Range Modifier Type
    ,                        !- Dry-Bulb Temperature Range Modifier Day Schedule Name
    Wetbulb,                 !- Humidity Condition Type
    23.5,                    !- Wetbulb or DewPoint at Maximum Dry-Bulb {C}
    ,                        !- Humidity Condition Day Schedule Name
    ,                        !- Humidity Ratio at Maximum Dry-Bulb {kgWater/kgDryAir}
    ,                        !- Enthalpy at Maximum Dry-Bulb {J/kg}
    ,                        !- Daily Wet-Bulb Temperature Range {deltaC}
    97679,                   !- Barometric Pressure {Pa}
    4,                       !- Wind Speed {m/s}
    300,                     !- Wind Direction {deg}
    No,                      !- Rain Indicator
    No,                      !- Snow Indicator
    No,                      !- Daylight Saving Time Indicator
    ASHRAETau,               !- Solar Model Indicator
    ,                        !- Beam Solar Day Schedule Name
    ,                        !- Diffuse Solar Day Schedule Name
    0.556,                   !- ASHRAE Clear Sky Optical Depth for Beam Irradiance (taub) {dimensionless}
    1.779,                   !- ASHRAE Clear Sky Optical Depth for Diffuse Irradiance (taud) {dimensionless}
    ,                        !- Sky Clearness
    ,                        !- Maximum Number Warmup Days
    FullResetAtBeginEnvironment;  !- Begin Environment Reset Mode

SizingPeriod:DesignDay,
    Atlanta Hartsfield Intl Ap Ann Clg .4% Condns DP=>MDB,  !- Name
    7,                       !- Month
    21,                      !- Day of Month
    SummerDesignDay,         !- Day Type
    27.3,                    !- Maximum Dry-Bulb Temperature {C}
    9.5,                     !- Daily Dry-Bulb Temperature Range {deltaC}
    DefaultMultipliers,      !- Dry-Bulb Temperature Range Modifier Type
    ,                        !- Dry-Bulb Temperature Range Modifier Day Schedule Name
    Dewpoint,                !- Humidity Condition Type
    23.4,                    !- Wetbulb or DewPoint at Maximum Dry-Bulb {C}
    ,                        !- Humidity Condition Day Schedule Name
    ,                        !- Humidity Ratio at Maximum Dry-Bulb {kgWater/kgDryAir}
    ,                        !- Enthalpy at Maximum Dry-Bulb {J/kg}
    ,                        !- Daily Wet-Bulb Temperature Range {deltaC}
    97679,                   !- Barometric Pressure {Pa}
    4,                       !- Wind Speed {m/s}
    300,                     !- Wind Direction {deg}
    No,                      !- Rain Indicator
    No,                      !- Snow Indicator
    No,                      !- Daylight Saving Time Indicator
    ASHRAETau,               !- Solar Model Indicator
    ,                        !- Beam Solar Day Schedule Name
    ,                        !- Diffuse Solar Day Schedule Name
    0.556,                   !- ASHRAE Clear Sky Optical Depth for Beam Irradiance (taub) {dimensionless}
    1.779,                   !- ASHRAE Clear Sky Optical Depth for Diffuse Irradiance (taud) {dimensionless}
    ,                        !- Sky Clearness
    ,                        !- Maximum Number Warmup Days
    FullResetAtBeginEnvironment;  !- Begin Environment Reset Mode

SizingPeriod:DesignDay,
    Atlanta Hartsfield Intl Ap Ann Clg .4% Condns Enth=>MDB,  !- Name
    7,                       !- Month
    21,                      !- Day of Month
    SummerDesignDay,         !- Day Type
    31.3,                    !- Maximum Dry-Bulb Temperature {C}
    9.5,                     !- Daily Dry-Bulb Temperature Range {deltaC}
    DefaultMultipliers,      !- Dry-Bulb Temperature Range Modifier Type
    ,                        !- Dry-Bulb Temperature Range Modifier Day Schedule Name
    Enthalpy,                !- Humidity Condition Type
    ,                        !- Wetbulb or DewPoint at Maximum Dry-Bulb {C}
    ,                        !- Humidity Condition Day Schedule Name
    ,                        !- Humidity Ratio at Maximum Dry-Bulb {kgWater/kgDryAir}
    77900,                   !- Enthalpy at Maximum Dry-Bulb {J/kg}
    ,                        !- Daily Wet-Bulb Temperature Range {deltaC}
    97679,                   !- Barometric Pressure {Pa}
    4,                       !- Wind Speed {m/s}
    300,                     !- Wind Direction {deg}
    No,                      !- Rain Indicator
    No,                      !- Snow Indicator
    No,                      !- Daylight Saving Time Indicator
    ASHRAETau,               !- Solar Model Indicator
    ,                        !- Beam Solar Day Schedule Name
    ,                        !- Diffuse Solar Day Schedule Name
    0.556,                   !- ASHRAE Clear Sky Optical Depth for Beam Irradiance (taub) {dimensionless}
    1.779,                   !- ASHRAE Clear Sky Optical Depth for Diffuse Irradiance (taud) {dimensionless}
    ,                        !- Sky Clearness
    ,                        !- Maximum Number Warmup Days
    FullResetAtBeginEnvironment;  !- Begin Environment Reset Mode

SizingPeriod:DesignDay,
    Atlanta Hartsfield Intl Ap Ann Clg .4% Condns WB=>MDB,  !- Name
    7,                       !- Month
    21,                      !- Day of Month
    SummerDesignDay,         !- Day Type
    31.2,                    !- Maximum Dry-Bulb Temperature {C}
    9.5,                     !- Daily Dry-Bulb Temperature Range {deltaC}
    DefaultMultipliers,      !- Dry-Bulb Temperature Range Modifier Type
    ,                        !- Dry-Bulb Temperature Range Modifier Day Schedule Name
    Wetbulb,                 !- Humidity Condition Type
    25.1,                    !- Wetbulb or DewPoint at Maximum Dry-Bulb {C}
    ,                        !- Humidity Condition Day Schedule Name
    ,                        !- Humidity Ratio at Maximum Dry-Bulb {kgWater/kgDryAir}
    ,                        !- Enthalpy at Maximum Dry-Bulb {J/kg}
    ,                        !- Daily Wet-Bulb Temperature Range {deltaC}
    97679,                   !- Barometric Pressure {Pa}
    4,                       !- Wind Speed {m/s}
    300,                     !- Wind Direction {deg}
    No,                      !- Rain Indicator
    No,                      !- Snow Indicator
    No,                      !- Daylight Saving Time Indicator
    ASHRAETau,               !- Solar Model Indicator
    ,                        !- Beam Solar Day Schedule Name
    ,                        !- Diffuse Solar Day Schedule Name
    0.556,                   !- ASHRAE Clear Sky Optical Depth for Beam Irradiance (taub) {dimensionless}
    1.779,                   !- ASHRAE Clear Sky Optical Depth for Diffuse Irradiance (taud) {dimensionless}
    ,                        !- Sky Clearness
    ,                        !- Maximum Number Warmup Days
    FullResetAtBeginEnvironment;  !- Begin Environment Reset Mode

SizingPeriod:DesignDay,
    Atlanta Hartsfield Intl Ap Ann Htg 99.6% Condns DB,  !- Name
    1,                       !- Month
    21,                      !- Day of Month
    WinterDesignDay,         !- Day Type
    -6.3,                    !- Maximum Dry-Bulb Temperature {C}
    0,                       !- Daily Dry-Bulb Temperature Range {deltaC}
    DefaultMultipliers,      !- Dry-Bulb Temperature Range Modifier Type
    ,                        !- Dry-Bulb Temperature Range Modifier Day Schedule Name
    Wetbulb,                 !- Humidity Condition Type
    -6.3,                    !- Wetbulb or DewPoint at Maximum Dry-Bulb {C}
    ,                        !- Humidity Condition Day Schedule Name
    ,                        !- Humidity Ratio at Maximum Dry-Bulb {kgWater/kgDryAir}
    ,                        !- Enthalpy at Maximum Dry-Bulb {J/kg}
    ,                        !- Daily Wet-Bulb Temperature Range {deltaC}
    97679,                   !- Barometric Pressure {Pa}
    5.3,                     !- Wind Speed {m/s}
    320,                     !- Wind Direction {deg}
    No,                      !- Rain Indicator
    No,                      !- Snow Indicator
    No,                      !- Daylight Saving Time Indicator
    ASHRAEClearSky,          !- Solar Model Indicator
    ,                        !- Beam Solar Day Schedule Name
    ,                        !- Diffuse Solar Day Schedule Name
    ,                        !- ASHRAE Clear Sky Optical Depth for Beam Irradiance (taub) {dimensionless}
    ,                        !- ASHRAE Clear Sky Optical Depth for Diffuse Irradiance (taud) {dimensionless}
    0,                       !- Sky Clearness
    ,                        !- Maximum Number Warmup Days
    FullResetAtBeginEnvironment;  !- Begin Environment Reset Mode

SizingPeriod:DesignDay,
    Atlanta Hartsfield Intl Ap Ann Htg Wind 99.6% Condns WS=>MCDB,  !- Name
    1,                       !- Month
    21,                      !- Day of Month
    WinterDesignDay,         !- Day Type
    3,                       !- Maximum Dry-Bulb Temperature {C}
    0,                       !- Daily Dry-Bulb Temperature Range {deltaC}
    DefaultMultipliers,      !- Dry-Bulb Temperature Range Modifier Type
    ,                        !- Dry-Bulb Temperature Range Modifier Day Schedule Name
    Wetbulb,                 !- Humidity Condition Type
    3,                       !- Wetbulb or DewPoint at Maximum Dry-Bulb {C}
    ,                        !- Humidity Condition Day Schedule Name
    ,                        !- Humidity Ratio at Maximum Dry-Bulb {kgWater/kgDryAir}
    ,                        !- Enthalpy at Maximum Dry-Bulb {J/kg}
    ,                        !- Daily Wet-Bulb Temperature Range {deltaC}
    97679,                   !- Barometric Pressure {Pa}
    11.4,                    !- Wind Speed {m/s}
    320,                     !- Wind Direction {deg}
    No,                      !- Rain Indicator
    No,                      !- Snow Indicator
    No,                      !- Daylight Saving Time Indicator
    ASHRAEClearSky,          !- Solar Model Indicator
    ,                        !- Beam Solar Day Schedule Name
    ,                        !- Diffuse Solar Day Schedule Name
    ,                        !- ASHRAE Clear Sky Optical Depth for Beam Irradiance (taub) {dimensionless}
    ,                        !- ASHRAE Clear Sky Optical Depth for Diffuse Irradiance (taud) {dimensionless}
    0,                       !- Sky Clearness
    ,                        !- Maximum Number Warmup Days
    FullResetAtBeginEnvironment;  !- Begin Environment Reset Mode

SizingPeriod:DesignDay,
    Atlanta Hartsfield Intl Ap Ann Hum_n 99.6% Condns DP=>MCDB,  !- Name
    1,                       !- Month
    21,                      !- Day of Month
    WinterDesignDay,         !- Day Type
    -2.6,                    !- Maximum Dry-Bulb Temperature {C}
    0,                       !- Daily Dry-Bulb Temperature Range {deltaC}
    DefaultMultipliers,      !- Dry-Bulb Temperature Range Modifier Type
    ,                        !- Dry-Bulb Temperature Range Modifier Day Schedule Name
    Dewpoint,                !- Humidity Condition Type
    -15.8,                   !- Wetbulb or DewPoint at Maximum Dry-Bulb {C}
    ,                        !- Humidity Condition Day Schedule Name
    ,                        !- Humidity Ratio at Maximum Dry-Bulb {kgWater/kgDryAir}
    ,                        !- Enthalpy at Maximum Dry-Bulb {J/kg}
    ,                        !- Daily Wet-Bulb Temperature Range {deltaC}
    97679,                   !- Barometric Pressure {Pa}
    5.3,                     !- Wind Speed {m/s}
    320,                     !- Wind Direction {deg}
    No,                      !- Rain Indicator
    No,                      !- Snow Indicator
    No,                      !- Daylight Saving Time Indicator
    ASHRAEClearSky,          !- Solar Model Indicator
    ,                        !- Beam Solar Day Schedule Name
    ,                        !- Diffuse Solar Day Schedule Name
    ,                        !- ASHRAE Clear Sky Optical Depth for Beam Irradiance (taub) {dimensionless}
    ,                        !- ASHRAE Clear Sky Optical Depth for Diffuse Irradiance (taud) {dimensionless}
    0,                       !- Sky Clearness
    ,                        !- Maximum Number Warmup Days
    FullResetAtBeginEnvironment;  !- Begin Environment Reset Mode


!-   ===========  ALL OBJECTS IN CLASS: RUNPERIOD ===========

RunPeriod,
    Run Period 1,            !- Name
    1,                       !- Begin Month
    1,                       !- Begin Day of Month
    2006,                    !- Begin Year
    12,                      !- End Month
    31,                      !- End Day of Month
    2006,                    !- End Year
    Sunday,                  !- Day of Week for Start Day
    No,                      !- Use Weather File Holidays and Special Days
    No,                      !- Use Weather File Daylight Saving Period
    No,                      !- Apply Weekend Holiday Rule
    Yes,                     !- Use Weather File Rain Indicators
    Yes;                     !- Use Weather File Snow Indicators


!-   ===========  ALL OBJECTS IN CLASS: SCHEDULETYPELIMITS ===========

ScheduleTypeLimits,
    Fractional,              !- Name
    0,                       !- Lower Limit Value
    1,                       !- Upper Limit Value
    Continuous;              !- Numeric Type

ScheduleTypeLimits,
    ActivityLevel,           !- Name
    0,                       !- Lower Limit Value
    ,                        !- Upper Limit Value
    Continuous,              !- Numeric Type
    activitylevel;           !- Unit Type

ScheduleTypeLimits,
    Thermal Zone 1 Thermostat Schedule Type Limits,  !- Name
    0,                       !- Lower Limit Value
    4,                       !- Upper Limit Value
    DISCRETE;                !- Numeric Type

ScheduleTypeLimits,
    Temperature,             !- Name
    ,                        !- Lower Limit Value
    ,                        !- Upper Limit Value
    Continuous,              !- Numeric Type
    temperature;             !- Unit Type

ScheduleTypeLimits,
    Thermal Zone 2 Thermostat Schedule Type Limits,  !- Name
    0,                       !- Lower Limit Value
    4,                       !- Upper Limit Value
    DISCRETE;                !- Numeric Type

ScheduleTypeLimits,
    Thermal Zone 3 Thermostat Schedule Type Limits,  !- Name
    0,                       !- Lower Limit Value
    4,                       !- Upper Limit Value
    DISCRETE;                !- Numeric Type

ScheduleTypeLimits,
    Thermal Zone 4 Thermostat Schedule Type Limits,  !- Name
    0,                       !- Lower Limit Value
    4,                       !- Upper Limit Value
    DISCRETE;                !- Numeric Type

ScheduleTypeLimits,
    ActivityLevel 12,        !- Name
    0,                       !- Lower Limit Value
    ,                        !- Upper Limit Value
    Continuous,              !- Numeric Type
    activitylevel;           !- Unit Type

ScheduleTypeLimits,
    ActivityLevel 13,        !- Name
    0,                       !- Lower Limit Value
    ,                        !- Upper Limit Value
    Continuous,              !- Numeric Type
    activitylevel;           !- Unit Type

ScheduleTypeLimits,
    ActivityLevel 5,         !- Name
    0,                       !- Lower Limit Value
    ,                        !- Upper Limit Value
    Continuous,              !- Numeric Type
    activitylevel;           !- Unit Type

ScheduleTypeLimits,
    Always On Discrete Limits,  !- Name
    0,                       !- Lower Limit Value
    1,                       !- Upper Limit Value
    Discrete,                !- Numeric Type
    availability;            !- Unit Type

ScheduleTypeLimits,
    Any Number;              !- Name

ScheduleTypeLimits,
    Fraction,                !- Name
    0,                       !- Lower Limit Value
    1,                       !- Upper Limit Value
    CONTINUOUS;              !- Numeric Type

ScheduleTypeLimits,
    Fractional 1,            !- Name
    0,                       !- Lower Limit Value
    1,                       !- Upper Limit Value
    Continuous;              !- Numeric Type

ScheduleTypeLimits,
    OnOff,                   !- Name
    0,                       !- Lower Limit Value
    1,                       !- Upper Limit Value
    Discrete,                !- Numeric Type
    availability;            !- Unit Type

ScheduleTypeLimits,
    OnOff hvac_library,      !- Name
    0,                       !- Lower Limit Value
    1,                       !- Upper Limit Value
    Discrete,                !- Numeric Type
    availability;            !- Unit Type

ScheduleTypeLimits,
    Temperature 11,          !- Name
    ,                        !- Lower Limit Value
    ,                        !- Upper Limit Value
    Continuous,              !- Numeric Type
    temperature;             !- Unit Type

ScheduleTypeLimits,
    Temperature 3,           !- Name
    ,                        !- Lower Limit Value
    ,                        !- Upper Limit Value
    Continuous,              !- Numeric Type
    temperature;             !- Unit Type

ScheduleTypeLimits,
    Temperature 36,          !- Name
    ,                        !- Lower Limit Value
    ,                        !- Upper Limit Value
    Continuous,              !- Numeric Type
    temperature;             !- Unit Type

ScheduleTypeLimits,
    Temperature 37,          !- Name
    ,                        !- Lower Limit Value
    ,                        !- Upper Limit Value
    Continuous,              !- Numeric Type
    temperature;             !- Unit Type

ScheduleTypeLimits,
    Temperature 4,           !- Name
    ,                        !- Lower Limit Value
    ,                        !- Upper Limit Value
    Continuous,              !- Numeric Type
    temperature;             !- Unit Type

ScheduleTypeLimits,
    Temperature 5,           !- Name
    ,                        !- Lower Limit Value
    ,                        !- Upper Limit Value
    Continuous,              !- Numeric Type
    temperature;             !- Unit Type

ScheduleTypeLimits,
    Velocity,                !- Name
    0,                       !- Lower Limit Value
    ,                        !- Upper Limit Value
    Continuous,              !- Numeric Type
    velocity;                !- Unit Type


!-   ===========  ALL OBJECTS IN CLASS: SCHEDULE:DAY:INTERVAL ===========

Schedule:Day:Interval,
    Warehouse Bldg Occ Default,  !- Name
    Fractional,              !- Schedule Type Limits Name
    No,                      !- Interpolate to Timestep
    24:00,                   !- Time 1 {hh:mm}
    1;                       !- Value Until Time 1

Schedule:Day:Interval,
    Warehouse Bldg Occ Summer Design Day,  !- Name
    Fractional,              !- Schedule Type Limits Name
    No,                      !- Interpolate to Timestep
    24:00,                   !- Time 1 {hh:mm}
    1;                       !- Value Until Time 1

Schedule:Day:Interval,
    Warehouse Bldg Occ Winter Design Day,  !- Name
    Fractional,              !- Schedule Type Limits Name
    No,                      !- Interpolate to Timestep
    24:00,                   !- Time 1 {hh:mm}
    1;                       !- Value Until Time 1

Schedule:Day:Interval,
    Warehouse Activity Default,  !- Name
    ActivityLevel,           !- Schedule Type Limits Name
    No,                      !- Interpolate to Timestep
    24:00,                   !- Time 1 {hh:mm}
    216;                     !- Value Until Time 1

Schedule:Day:Interval,
    Warehouse Activity Summer Design Day,  !- Name
    ActivityLevel,           !- Schedule Type Limits Name
    No,                      !- Interpolate to Timestep
    24:00,                   !- Time 1 {hh:mm}
    216;                     !- Value Until Time 1

Schedule:Day:Interval,
    Warehouse Activity Winter Design Day,  !- Name
    ActivityLevel,           !- Schedule Type Limits Name
    No,                      !- Interpolate to Timestep
    24:00,                   !- Time 1 {hh:mm}
    216;                     !- Value Until Time 1

Schedule:Day:Interval,
    Warehouse Bldg Equip Default,  !- Name
    Fractional,              !- Schedule Type Limits Name
    No,                      !- Interpolate to Timestep
    24:00,                   !- Time 1 {hh:mm}
    1;                       !- Value Until Time 1

Schedule:Day:Interval,
    Warehouse Bldg Equip Summer Design Day,  !- Name
    Fractional,              !- Schedule Type Limits Name
    No,                      !- Interpolate to Timestep
    24:00,                   !- Time 1 {hh:mm}
    1;                       !- Value Until Time 1

Schedule:Day:Interval,
    Warehouse Bldg Equip Winter Design Day,  !- Name
    Fractional,              !- Schedule Type Limits Name
    No,                      !- Interpolate to Timestep
    24:00,                   !- Time 1 {hh:mm}
    1;                       !- Value Until Time 1

Schedule:Day:Interval,
    Warehouse HtgSetp Default,  !- Name
    Temperature,             !- Schedule Type Limits Name
    No,                      !- Interpolate to Timestep
    24:00,                   !- Time 1 {hh:mm}
    21.1111111111111;        !- Value Until Time 1

Schedule:Day:Interval,
    Warehouse HtgSetp Summer Design Day,  !- Name
    Temperature,             !- Schedule Type Limits Name
    No,                      !- Interpolate to Timestep
    24:00,                   !- Time 1 {hh:mm}
    21.1111111111111;        !- Value Until Time 1

Schedule:Day:Interval,
    Warehouse HtgSetp Winter Design Day,  !- Name
    Temperature,             !- Schedule Type Limits Name
    No,                      !- Interpolate to Timestep
    24:00,                   !- Time 1 {hh:mm}
    21.1111111111111;        !- Value Until Time 1

Schedule:Day:Interval,
    Automobile Cooling Setpoint,  !- Name
    Temperature,             !- Schedule Type Limits Name
    No,                      !- Interpolate to Timestep
    24:00,                   !- Time 1 {hh:mm}
    22.2222222222223;        !- Value Until Time 1

Schedule:Day:Interval,
    Warehouse ClgSetp FineStorage Summer Design Day,  !- Name
    Temperature,             !- Schedule Type Limits Name
    No,                      !- Interpolate to Timestep
    24:00,                   !- Time 1 {hh:mm}
    22.2222222222223;        !- Value Until Time 1

Schedule:Day:Interval,
    Warehouse ClgSetp FineStorage Winter Design Day,  !- Name
    Temperature,             !- Schedule Type Limits Name
    No,                      !- Interpolate to Timestep
    24:00,                   !- Time 1 {hh:mm}
    22.2222222222223;        !- Value Until Time 1

Schedule:Day:Interval,
    Air Velocity Schedule Default,  !- Name
    Velocity,                !- Schedule Type Limits Name
    No,                      !- Interpolate to Timestep
    24:00,                   !- Time 1 {hh:mm}
    0.2;                     !- Value Until Time 1

Schedule:Day:Interval,
    Always On Default,       !- Name
    Fractional,              !- Schedule Type Limits Name
    No,                      !- Interpolate to Timestep
    24:00,                   !- Time 1 {hh:mm}
    1;                       !- Value Until Time 1

Schedule:Day:Interval,
    Clothing Schedule Default Winter Clothes,  !- Name
    Any Number,              !- Schedule Type Limits Name
    No,                      !- Interpolate to Timestep
    24:00,                   !- Time 1 {hh:mm}
    1;                       !- Value Until Time 1

Schedule:Day:Interval,
    Clothing Schedule Summer Clothes,  !- Name
    Any Number,              !- Schedule Type Limits Name
    No,                      !- Interpolate to Timestep
    24:00,                   !- Time 1 {hh:mm}
    0.5;                     !- Value Until Time 1

Schedule:Day:Interval,
    Schedule Day 1,          !- Name
    ,                        !- Schedule Type Limits Name
    No,                      !- Interpolate to Timestep
    24:00,                   !- Time 1 {hh:mm}
    0;                       !- Value Until Time 1

Schedule:Day:Interval,
    Schedule Day 10,         !- Name
    ,                        !- Schedule Type Limits Name
    No,                      !- Interpolate to Timestep
    24:00,                   !- Time 1 {hh:mm}
    0;                       !- Value Until Time 1

Schedule:Day:Interval,
    Schedule Day 11,         !- Name
    ,                        !- Schedule Type Limits Name
    No,                      !- Interpolate to Timestep
    24:00,                   !- Time 1 {hh:mm}
    0;                       !- Value Until Time 1

Schedule:Day:Interval,
    Schedule Day 12,         !- Name
    ,                        !- Schedule Type Limits Name
    No,                      !- Interpolate to Timestep
    24:00,                   !- Time 1 {hh:mm}
    0;                       !- Value Until Time 1

Schedule:Day:Interval,
    Schedule Day 13,         !- Name